reduced_networks/european_lv/91pct/dss/Loads.dss
! Phase-wise constant-PQ injections aggregated by assignment; positive DSS power is consumption.
new Load.agg_4 phases=1 bus1=1.1 conn=wye kv=0.2401777119828843 kw=-6.648e-10 kvar=-2.912000000000001e-10 model=1 vminpu=0 vmaxpu=2
new Load.agg_5 phases=1 bus1=1.2 conn=wye kv=0.2401777119828843 kw=-7.968000000000001e-10 kvar=-1.3616e-09 model=1 vminpu=0 vmaxpu=2
new Load.agg_6 phases=1 bus1=1.3 conn=wye kv=0.2401777119828843 kw=3.584000000000001e-10 kvar=-1.976e-10 model=1 vminpu=0 vmaxpu=2
new Load.agg_7 phases=1 bus1=5.1 conn=wye kv=0.2401777119828843 kw=-2.879999999999999e-10 kvar=-5.664e-10 model=1 vminpu=0 vmaxpu=2
new Load.agg_8 phases=1 bus1=5.2 conn=wye kv=0.2401777119828843 kw=1.600000000000001e-10 kvar=3.599999999999998e-10 model=1 vminpu=0 vmaxpu=2
new Load.agg_9 phases=1 bus1=5.3 conn=wye kv=0.2401777119828843 kw=-2.336000000000001e-10 kvar=-1.896e-10 model=1 vminpu=0 vmaxpu=2
new Load.agg_10 phases=1 bus1=15.1 conn=wye kv=0.2401777119828843 kw=5.856e-10 kvar=8.000000000000067e-13 model=1 vminpu=0 vmaxpu=2
new Load.agg_11 phases=1 bus1=15.2 conn=wye kv=0.2401777119828843 kw=7.743999999999999e-10 kvar=4.880000000000003e-11 model=1 vminpu=0 vmaxpu=2
new Load.agg_12 phases=1 bus1=15.3 conn=wye kv=0.2401777119828843 kw=5.248000000000001e-10 kvar=5.280000000000001e-11 model=1 vminpu=0 vmaxpu=2
new Load.agg_13 phases=1 bus1=16.1 conn=wye kv=0.2401777119828843 kw=-3.495999999999999e-10 kvar=3.256e-10 model=1 vminpu=0 vmaxpu=2
new Load.agg_14 phases=1 bus1=16.2 conn=wye kv=0.2401777119828843 kw=-3.271999999999999e-10 kvar=3.919999999999995e-11 model=1 vminpu=0 vmaxpu=2
new Load.agg_15 phases=1 bus1=16.3 conn=wye kv=0.2401777119828843 kw=4.720000000000002e-11 kvar=-8.800000000000001e-12 model=1 vminpu=0 vmaxpu=2
new Load.agg_16 phases=1 bus1=23.1 conn=wye kv=0.2401777119828843 kw=0.5874998899064 kvar=0.1931003689256 model=1 vminpu=0 vmaxpu=2
new Load.agg_17 phases=1 bus1=23.2 conn=wye kv=0.2401777119828843 kw=1.591999999999999e-10 kvar=1.760000000000002e-11 model=1 vminpu=0 vmaxpu=2
new Load.agg_18 phases=1 bus1=23.3 conn=wye kv=0.2401777119828843 kw=-2.792000000000001e-10 kvar=-3.359999999999997e-11 model=1 vminpu=0 vmaxpu=2
new Load.agg_19 phases=1 bus1=28.1 conn=wye kv=0.2401777119828843 kw=2.944e-10 kvar=-2.239999999999999e-11 model=1 vminpu=0 vmaxpu=2
new Load.agg_20 phases=1 bus1=28.2 conn=wye kv=0.2401777119828843 kw=1.188591036732 kvar=0.3906718643392 model=1 vminpu=0 vmaxpu=2
new Load.agg_21 phases=1 bus1=28.3 conn=wye kv=0.2401777119828843 kw=-1.112e-10 kvar=1.120000000000001e-11 model=1 vminpu=0 vmaxpu=2
new Load.agg_22 phases=1 bus1=37.1 conn=wye kv=0.2401777119828843 kw=-3.6112e-09 kvar=7.039999999999987e-11 model=1 vminpu=0 vmaxpu=2
new Load.agg_23 phases=1 bus1=37.2 conn=wye kv=0.2401777119828843 kw=-2.239999999999985e-11 kvar=2.64000000000002e-11 model=1 vminpu=0 vmaxpu=2
new Load.agg_24 phases=1 bus1=37.3 conn=wye kv=0.2401777119828843 kw=-3.468e-09 kvar=-4.368000000000002e-10 model=1 vminpu=0 vmaxpu=2
new Load.agg_25 phases=1 bus1=53.1 conn=wye kv=0.2401777119828843 kw=0.4289804880952 kvar=0.1409950751536 model=1 vminpu=0 vmaxpu=2
new Load.agg_26 phases=1 bus1=53.2 conn=wye kv=0.2401777119828843 kw=2.888e-10 kvar=2.576e-10 model=1 vminpu=0 vmaxpu=2
new Load.agg_27 phases=1 bus1=53.3 conn=wye kv=0.2401777119828843 kw=-2.152e-10 kvar=-8.239999999999998e-11 model=1 vminpu=0 vmaxpu=2
new Load.agg_28 phases=1 bus1=56.1 conn=wye kv=0.2401777119828843 kw=1.144e-10 kvar=-1.376e-10 model=1 vminpu=0 vmaxpu=2
new Load.agg_29 phases=1 bus1=56.2 conn=wye kv=0.2401777119828843 kw=-3.839999999999999e-11 kvar=8.079999999999999e-11 model=1 vminpu=0 vmaxpu=2
new Load.agg_30 phases=1 bus1=56.3 conn=wye kv=0.2401777119828843 kw=-1.792000000000001e-10 kvar=1.600000000000001e-12 model=1 vminpu=0 vmaxpu=2
new Load.agg_31 phases=1 bus1=81.1 conn=wye kv=0.2401777119828843 kw=1.34e-09 kvar=-7.887999999999999e-10 model=1 vminpu=0 vmaxpu=2
new Load.agg_32 phases=1 bus1=81.2 conn=wye kv=0.2401777119828843 kw=7.1672e-09 kvar=3.6216e-09 model=1 vminpu=0 vmaxpu=2
new Load.agg_33 phases=1 bus1=81.3 conn=wye kv=0.2401777119828843 kw=-2.003200000000001e-09 kvar=1.1784e-09 model=1 vminpu=0 vmaxpu=2
new Load.agg_34 phases=1 bus1=101.1 conn=wye kv=0.2401777119828843 kw=-6.744000000000001e-10 kvar=7.760000000000025e-11 model=1 vminpu=0 vmaxpu=2
new Load.agg_35 phases=1 bus1=101.2 conn=wye kv=0.2401777119828843 kw=-1.1984e-09 kvar=6.104e-10 model=1 vminpu=0 vmaxpu=2
new Load.agg_36 phases=1 bus1=101.3 conn=wye kv=0.2401777119828843 kw=6.536e-10 kvar=7.968000000000001e-10 model=1 vminpu=0 vmaxpu=2
new Load.agg_37 phases=1 bus1=112.1 conn=wye kv=0.2401777119828843 kw=-9.344e-10 kvar=-8.160000000000002e-10 model=1 vminpu=0 vmaxpu=2
new Load.agg_38 phases=1 bus1=112.2 conn=wye kv=0.2401777119828843 kw=6.319999999999992e-11 kvar=-6.992e-10 model=1 vminpu=0 vmaxpu=2
new Load.agg_39 phases=1 bus1=112.3 conn=wye kv=0.2401777119828843 kw=3.519999999999977e-11 kvar=4.096e-10 model=1 vminpu=0 vmaxpu=2
new Load.agg_40 phases=1 bus1=114.1 conn=wye kv=0.2401777119828843 kw=-9.519999999999999e-11 kvar=1.392e-10 model=1 vminpu=0 vmaxpu=2
new Load.agg_41 phases=1 bus1=114.2 conn=wye kv=0.2401777119828843 kw=2.959999999999999e-11 kvar=-6.24e-11 model=1 vminpu=0 vmaxpu=2
new Load.agg_42 phases=1 bus1=114.3 conn=wye kv=0.2401777119828843 kw=2.808000000000001e-10 kvar=1.616e-10 model=1 vminpu=0 vmaxpu=2
new Load.agg_43 phases=1 bus1=116.1 conn=wye kv=0.2401777119828843 kw=1.616e-10 kvar=-1.232e-10 model=1 vminpu=0 vmaxpu=2
new Load.agg_44 phases=1 bus1=116.2 conn=wye kv=0.2401777119828843 kw=0.0596954277584 kvar=0.0196224016864 model=1 vminpu=0 vmaxpu=2
new Load.agg_45 phases=1 bus1=116.3 conn=wye kv=0.2401777119828843 kw=7.008e-10 kvar=9.015999999999998e-10 model=1 vminpu=0 vmaxpu=2
new Load.agg_46 phases=1 bus1=117.1 conn=wye kv=0.2401777119828843 kw=3.824e-10 kvar=-2.896000000000001e-10 model=1 vminpu=0 vmaxpu=2
new Load.agg_47 phases=1 bus1=117.2 conn=wye kv=0.2401777119828843 kw=2.232000000000001e-10 kvar=3.152e-10 model=1 vminpu=0 vmaxpu=2
new Load.agg_48 phases=1 bus1=117.3 conn=wye kv=0.2401777119828843 kw=-2.864000000000001e-10 kvar=1.240000000000001e-10 model=1 vminpu=0 vmaxpu=2
new Load.agg_49 phases=1 bus1=127.1 conn=wye kv=0.2401777119828843 kw=2.016e-10 kvar=-1.824e-10 model=1 vminpu=0 vmaxpu=2
new Load.agg_50 phases=1 bus1=127.2 conn=wye kv=0.2401777119828843 kw=-2.16e-11 kvar=6.719999999999999e-11 model=1 vminpu=0 vmaxpu=2
new Load.agg_51 phases=1 bus1=127.3 conn=wye kv=0.2401777119828843 kw=1.08e-10 kvar=4.8e-12 model=1 vminpu=0 vmaxpu=2
new Load.agg_52 phases=1 bus1=145.1 conn=wye kv=0.2401777119828843 kw=9.60000000000004e-12 kvar=-3.912e-10 model=1 vminpu=0 vmaxpu=2
new Load.agg_53 phases=1 bus1=145.2 conn=wye kv=0.2401777119828843 kw=-4.6e-10 kvar=2e-11 model=1 vminpu=0 vmaxpu=2
new Load.agg_54 phases=1 bus1=145.3 conn=wye kv=0.2401777119828843 kw=-2.312e-10 kvar=2.096e-10 model=1 vminpu=0 vmaxpu=2
new Load.agg_55 phases=1 bus1=153.1 conn=wye kv=0.2401777119828843 kw=3.383999999999998e-10 kvar=1.760000000000004e-11 model=1 vminpu=0 vmaxpu=2
new Load.agg_56 phases=1 bus1=153.2 conn=wye kv=0.2401777119828843 kw=-2.568000000000001e-10 kvar=-9.279999999999997e-11 model=1 vminpu=0 vmaxpu=2
new Load.agg_57 phases=1 bus1=153.3 conn=wye kv=0.2401777119828843 kw=-1.792e-10 kvar=-4.080000000000001e-11 model=1 vminpu=0 vmaxpu=2
new Load.agg_58 phases=1 bus1=156.1 conn=wye kv=0.2401777119828843 kw=1.120000000000001e-11 kvar=1.359999999999999e-11 model=1 vminpu=0 vmaxpu=2
new Load.agg_59 phases=1 bus1=156.2 conn=wye kv=0.2401777119828843 kw=5.279999999999999e-11 kvar=-7.200000000000015e-12 model=1 vminpu=0 vmaxpu=2
new Load.agg_60 phases=1 bus1=156.3 conn=wye kv=0.2401777119828843 kw=4.72e-11 kvar=2.4e-12 model=1 vminpu=0 vmaxpu=2
new Load.agg_61 phases=1 bus1=163.1 conn=wye kv=0.2401777119828843 kw=0.3049560275328 kvar=0.1002319685664 model=1 vminpu=0 vmaxpu=2
new Load.agg_62 phases=1 bus1=163.2 conn=wye kv=0.2401777119828843 kw=0.1150465859176 kvar=0.0378169566384 model=1 vminpu=0 vmaxpu=2
new Load.agg_63 phases=1 bus1=163.3 conn=wye kv=0.2401777119828843 kw=0.6098231757375998 kvar=0.20043979332 model=1 vminpu=0 vmaxpu=2
new Load.agg_64 phases=1 bus1=166.1 conn=wye kv=0.2401777119828843 kw=2.8424e-09 kvar=2.528e-10 model=1 vminpu=0 vmaxpu=2
new Load.agg_65 phases=1 bus1=166.2 conn=wye kv=0.2401777119828843 kw=-1.7784e-09 kvar=-4.831999999999998e-10 model=1 vminpu=0 vmaxpu=2
new Load.agg_66 phases=1 bus1=166.3 conn=wye kv=0.2401777119828843 kw=4.88e-10 kvar=-1.8048e-09 model=1 vminpu=0 vmaxpu=2
new Load.agg_67 phases=1 bus1=211.1 conn=wye kv=0.2401777119828843 kw=0.2278445256808 kvar=0.0748861943984 model=1 vminpu=0 vmaxpu=2
new Load.agg_68 phases=1 bus1=211.2 conn=wye kv=0.2401777119828843 kw=4.104e-10 kvar=2.175999999999999e-10 model=1 vminpu=0 vmaxpu=2
new Load.agg_69 phases=1 bus1=211.3 conn=wye kv=0.2401777119828843 kw=2.479999999999999e-10 kvar=-1.007999999999999e-10 model=1 vminpu=0 vmaxpu=2
new Load.agg_70 phases=1 bus1=212.1 conn=wye kv=0.2401777119828843 kw=-2.097599999999999e-09 kvar=2.3672e-09 model=1 vminpu=0 vmaxpu=2
new Load.agg_71 phases=1 bus1=212.2 conn=wye kv=0.2401777119828843 kw=2.4888e-09 kvar=2.643200000000001e-09 model=1 vminpu=0 vmaxpu=2
new Load.agg_72 phases=1 bus1=212.3 conn=wye kv=0.2401777119828843 kw=-8.584000000000004e-10 kvar=5.727999999999999e-10 model=1 vminpu=0 vmaxpu=2
new Load.agg_73 phases=1 bus1=239.1 conn=wye kv=0.2401777119828843 kw=2.960000000000002e-11 kvar=2.256000000000001e-10 model=1 vminpu=0 vmaxpu=2
new Load.agg_74 phases=1 bus1=239.2 conn=wye kv=0.2401777119828843 kw=0.118248576792 kvar=0.0388696543248 model=1 vminpu=0 vmaxpu=2
new Load.agg_75 phases=1 bus1=239.3 conn=wye kv=0.2401777119828843 kw=5.944e-10 kvar=-1.552e-10 model=1 vminpu=0 vmaxpu=2
new Load.agg_76 phases=1 bus1=242.1 conn=wye kv=0.2401777119828843 kw=1.272e-10 kvar=-1.984e-10 model=1 vminpu=0 vmaxpu=2
new Load.agg_77 phases=1 bus1=242.2 conn=wye kv=0.2401777119828843 kw=-8.480000000000002e-11 kvar=2.16e-11 model=1 vminpu=0 vmaxpu=2
new Load.agg_78 phases=1 bus1=242.3 conn=wye kv=0.2401777119828843 kw=0.5098171773055999 kvar=0.1675695155032 model=1 vminpu=0 vmaxpu=2
new Load.agg_79 phases=1 bus1=247.1 conn=wye kv=0.2401777119828843 kw=-1.176e-10 kvar=-8.800000000000013e-12 model=1 vminpu=0 vmaxpu=2
new Load.agg_80 phases=1 bus1=247.2 conn=wye kv=0.2401777119828843 kw=-2.32e-10 kvar=-5.280000000000001e-11 model=1 vminpu=0 vmaxpu=2
new Load.agg_81 phases=1 bus1=247.3 conn=wye kv=0.2401777119828843 kw=1.24e-10 kvar=2.080000000000002e-11 model=1 vminpu=0 vmaxpu=2
new Load.agg_82 phases=1 bus1=253.1 conn=wye kv=0.2401777119828843 kw=2.007999999999999e-10 kvar=1.584e-10 model=1 vminpu=0 vmaxpu=2
new Load.agg_83 phases=1 bus1=253.2 conn=wye kv=0.2401777119828843 kw=1.504e-10 kvar=-1.552e-10 model=1 vminpu=0 vmaxpu=2
new Load.agg_84 phases=1 bus1=253.3 conn=wye kv=0.2401777119828843 kw=0.1087845781816 kvar=0.0357584650024 model=1 vminpu=0 vmaxpu=2
new Load.agg_85 phases=1 bus1=263.1 conn=wye kv=0.2401777119828843 kw=1.536e-10 kvar=1.04e-10 model=1 vminpu=0 vmaxpu=2
new Load.agg_86 phases=1 bus1=263.2 conn=wye kv=0.2401777119828843 kw=1.68e-11 kvar=-3.200000000000007e-12 model=1 vminpu=0 vmaxpu=2
new Load.agg_87 phases=1 bus1=263.3 conn=wye kv=0.2401777119828843 kw=5.359999999999999e-11 kvar=-8.079999999999999e-11 model=1 vminpu=0 vmaxpu=2
new Load.agg_88 phases=1 bus1=271.1 conn=wye kv=0.2401777119828843 kw=-1.256e-10 kvar=4.400000000000002e-11 model=1 vminpu=0 vmaxpu=2
new Load.agg_89 phases=1 bus1=271.2 conn=wye kv=0.2401777119828843 kw=5.039999999999999e-11 kvar=-4.639999999999998e-11 model=1 vminpu=0 vmaxpu=2
new Load.agg_90 phases=1 bus1=271.3 conn=wye kv=0.2401777119828843 kw=0.0576512103816 kvar=0.0189506909344 model=1 vminpu=0 vmaxpu=2
new Load.agg_91 phases=1 bus1=280.1 conn=wye kv=0.2401777119828843 kw=-2.016e-10 kvar=6.399999999999996e-11 model=1 vminpu=0 vmaxpu=2
new Load.agg_92 phases=1 bus1=280.2 conn=wye kv=0.2401777119828843 kw=5.023999999999999e-10 kvar=5.664e-10 model=1 vminpu=0 vmaxpu=2
new Load.agg_93 phases=1 bus1=280.3 conn=wye kv=0.2401777119828843 kw=3.992e-10 kvar=3.680000000000001e-10 model=1 vminpu=0 vmaxpu=2
new Load.agg_94 phases=1 bus1=310.1 conn=wye kv=0.2401777119828843 kw=0.055272838928 kvar=0.01816324478 model=1 vminpu=0 vmaxpu=2
new Load.agg_95 phases=1 bus1=310.2 conn=wye kv=0.2401777119828843 kw=-4.688000000000001e-10 kvar=6.799999999999998e-11 model=1 vminpu=0 vmaxpu=2
new Load.agg_96 phases=1 bus1=310.3 conn=wye kv=0.2401777119828843 kw=0.0533064411288 kvar=0.0175227715672 model=1 vminpu=0 vmaxpu=2
new Load.agg_97 phases=1 bus1=311.1 conn=wye kv=0.2401777119828843 kw=-2.327999999999999e-09 kvar=-6.759999999999999e-10 model=1 vminpu=0 vmaxpu=2
new Load.agg_98 phases=1 bus1=311.2 conn=wye kv=0.2401777119828843 kw=1.324e-09 kvar=-3.224000000000007e-10 model=1 vminpu=0 vmaxpu=2
new Load.agg_99 phases=1 bus1=311.3 conn=wye kv=0.2401777119828843 kw=-5.727999999999999e-10 kvar=-5.016000000000001e-10 model=1 vminpu=0 vmaxpu=2
new Load.agg_100 phases=1 bus1=328.1 conn=wye kv=0.2401777119828843 kw=0.04879503876000001 kvar=0.0160343693592 model=1 vminpu=0 vmaxpu=2
new Load.agg_101 phases=1 bus1=328.2 conn=wye kv=0.2401777119828843 kw=-1.120000000000004e-11 kvar=-1.296000000000001e-10 model=1 vminpu=0 vmaxpu=2
new Load.agg_102 phases=1 bus1=328.3 conn=wye kv=0.2401777119828843 kw=-1.848e-10 kvar=9.280000000000002e-11 model=1 vminpu=0 vmaxpu=2
new Load.agg_103 phases=1 bus1=332.1 conn=wye kv=0.2401777119828843 kw=-4.840000000000002e-10 kvar=2.808e-10 model=1 vminpu=0 vmaxpu=2
new Load.agg_104 phases=1 bus1=332.2 conn=wye kv=0.2401777119828843 kw=-1.544e-10 kvar=-1.336e-10 model=1 vminpu=0 vmaxpu=2
new Load.agg_105 phases=1 bus1=332.3 conn=wye kv=0.2401777119828843 kw=-4.28e-10 kvar=1.599999999999997e-11 model=1 vminpu=0 vmaxpu=2
new Load.agg_106 phases=1 bus1=356.1 conn=wye kv=0.2401777119828843 kw=1.3128e-09 kvar=-2.04e-10 model=1 vminpu=0 vmaxpu=2
new Load.agg_107 phases=1 bus1=356.2 conn=wye kv=0.2401777119828843 kw=0.6540789283928 kvar=0.2149863223936 model=1 vminpu=0 vmaxpu=2
new Load.agg_108 phases=1 bus1=356.3 conn=wye kv=0.2401777119828843 kw=1.068e-09 kvar=-2.719999999999996e-11 model=1 vminpu=0 vmaxpu=2
new Load.agg_109 phases=1 bus1=360.1 conn=wye kv=0.2401777119828843 kw=0.05852364950559999 kvar=0.0192317397376 model=1 vminpu=0 vmaxpu=2
new Load.agg_110 phases=1 bus1=360.2 conn=wye kv=0.2401777119828843 kw=3.855999999999999e-10 kvar=-1.016e-10 model=1 vminpu=0 vmaxpu=2
new Load.agg_111 phases=1 bus1=360.3 conn=wye kv=0.2401777119828843 kw=-9.119999999999999e-11 kvar=-1.296e-10 model=1 vminpu=0 vmaxpu=2
new Load.agg_112 phases=1 bus1=373.1 conn=wye kv=0.2401777119828843 kw=-6.864e-10 kvar=-3.752e-10 model=1 vminpu=0 vmaxpu=2
new Load.agg_113 phases=1 bus1=373.2 conn=wye kv=0.2401777119828843 kw=4.136e-10 kvar=-9.184e-10 model=1 vminpu=0 vmaxpu=2
new Load.agg_114 phases=1 bus1=373.3 conn=wye kv=0.2401777119828843 kw=6.559999999999999e-10 kvar=8.879999999999999e-11 model=1 vminpu=0 vmaxpu=2
new Load.agg_115 phases=1 bus1=379.1 conn=wye kv=0.2401777119828843 kw=-1.175999999999999e-10 kvar=-2.336000000000001e-10 model=1 vminpu=0 vmaxpu=2
new Load.agg_116 phases=1 bus1=379.2 conn=wye kv=0.2401777119828843 kw=1.136e-10 kvar=-2.544e-10 model=1 vminpu=0 vmaxpu=2
new Load.agg_117 phases=1 bus1=379.3 conn=wye kv=0.2401777119828843 kw=1.832e-10 kvar=1.12e-11 model=1 vminpu=0 vmaxpu=2
new Load.agg_118 phases=1 bus1=390.1 conn=wye kv=0.2401777119828843 kw=-2.568e-10 kvar=2.16e-11 model=1 vminpu=0 vmaxpu=2
new Load.agg_119 phases=1 bus1=390.2 conn=wye kv=0.2401777119828843 kw=1.519999999999998e-11 kvar=5.760000000000002e-11 model=1 vminpu=0 vmaxpu=2
new Load.agg_120 phases=1 bus1=390.3 conn=wye kv=0.2401777119828843 kw=4.08e-11 kvar=5.519999999999999e-11 model=1 vminpu=0 vmaxpu=2
new Load.agg_121 phases=1 bus1=391.1 conn=wye kv=0.2401777119828843 kw=-1.952e-10 kvar=4.496e-10 model=1 vminpu=0 vmaxpu=2
new Load.agg_122 phases=1 bus1=391.2 conn=wye kv=0.2401777119828843 kw=-3.72e-10 kvar=9.904e-10 model=1 vminpu=0 vmaxpu=2
new Load.agg_123 phases=1 bus1=391.3 conn=wye kv=0.2401777119828843 kw=-9.176e-10 kvar=-2.768e-10 model=1 vminpu=0 vmaxpu=2
new Load.agg_124 phases=1 bus1=396.1 conn=wye kv=0.2401777119828843 kw=-4.479999999999997e-11 kvar=-1.36e-10 model=1 vminpu=0 vmaxpu=2
new Load.agg_125 phases=1 bus1=396.2 conn=wye kv=0.2401777119828843 kw=7.119999999999997e-11 kvar=1.944e-10 model=1 vminpu=0 vmaxpu=2
new Load.agg_126 phases=1 bus1=396.3 conn=wye kv=0.2401777119828843 kw=2.616e-10 kvar=6.960000000000002e-11 model=1 vminpu=0 vmaxpu=2
new Load.agg_127 phases=1 bus1=403.1 conn=wye kv=0.2401777119828843 kw=-1.0016e-09 kvar=-2.224e-09 model=1 vminpu=0 vmaxpu=2
new Load.agg_128 phases=1 bus1=403.2 conn=wye kv=0.2401777119828843 kw=-1.655999999999997e-10 kvar=2.4312e-09 model=1 vminpu=0 vmaxpu=2
new Load.agg_129 phases=1 bus1=403.3 conn=wye kv=0.2401777119828843 kw=-1.8112e-09 kvar=1.2752e-09 model=1 vminpu=0 vmaxpu=2
new Load.agg_130 phases=1 bus1=409.1 conn=wye kv=0.2401777119828843 kw=9.968000000000001e-10 kvar=-7.904e-10 model=1 vminpu=0 vmaxpu=2
new Load.agg_131 phases=1 bus1=409.2 conn=wye kv=0.2401777119828843 kw=1.5208e-09 kvar=1.4912e-09 model=1 vminpu=0 vmaxpu=2
new Load.agg_132 phases=1 bus1=409.3 conn=wye kv=0.2401777119828843 kw=-9.711999999999999e-10 kvar=1.048e-10 model=1 vminpu=0 vmaxpu=2
new Load.agg_133 phases=1 bus1=423.1 conn=wye kv=0.2401777119828843 kw=2.456e-10 kvar=4.72e-11 model=1 vminpu=0 vmaxpu=2
new Load.agg_134 phases=1 bus1=423.2 conn=wye kv=0.2401777119828843 kw=5.76e-11 kvar=1.12e-10 model=1 vminpu=0 vmaxpu=2
new Load.agg_135 phases=1 bus1=423.3 conn=wye kv=0.2401777119828843 kw=0.0587340409952 kvar=0.0193066990368 model=1 vminpu=0 vmaxpu=2
new Load.agg_136 phases=1 bus1=452.1 conn=wye kv=0.2401777119828843 kw=-1.92e-10 kvar=1.408e-10 model=1 vminpu=0 vmaxpu=2
new Load.agg_137 phases=1 bus1=452.2 conn=wye kv=0.2401777119828843 kw=-8.479999999999998e-11 kvar=2.399999999999997e-12 model=1 vminpu=0 vmaxpu=2
new Load.agg_138 phases=1 bus1=452.3 conn=wye kv=0.2401777119828843 kw=-1.928e-10 kvar=5.6e-12 model=1 vminpu=0 vmaxpu=2
new Load.agg_139 phases=1 bus1=453.1 conn=wye kv=0.2401777119828843 kw=-2.936000000000001e-10 kvar=-1.423999999999999e-10 model=1 vminpu=0 vmaxpu=2
new Load.agg_140 phases=1 bus1=453.2 conn=wye kv=0.2401777119828843 kw=-8.559999999999999e-11 kvar=-1.279999999999999e-10 model=1 vminpu=0 vmaxpu=2
new Load.agg_141 phases=1 bus1=453.3 conn=wye kv=0.2401777119828843 kw=-5.416e-10 kvar=-5.840000000000001e-11 model=1 vminpu=0 vmaxpu=2
new Load.agg_142 phases=1 bus1=471.1 conn=wye kv=0.2401777119828843 kw=-6.296000000000001e-10 kvar=2.992e-10 model=1 vminpu=0 vmaxpu=2
new Load.agg_143 phases=1 bus1=471.2 conn=wye kv=0.2401777119828843 kw=-4.008e-10 kvar=3.999999999999995e-11 model=1 vminpu=0 vmaxpu=2
new Load.agg_144 phases=1 bus1=471.3 conn=wye kv=0.2401777119828843 kw=0.1990166949992 kvar=0.0654171070528 model=1 vminpu=0 vmaxpu=2
new Load.agg_145 phases=1 bus1=475.1 conn=wye kv=0.2401777119828843 kw=0.1113730872544 kvar=0.036597273068 model=1 vminpu=0 vmaxpu=2
new Load.agg_146 phases=1 bus1=475.2 conn=wye kv=0.2401777119828843 kw=7.2e-11 kvar=-9.84e-11 model=1 vminpu=0 vmaxpu=2
new Load.agg_147 phases=1 bus1=475.3 conn=wye kv=0.2401777119828843 kw=1.280000000000003e-11 kvar=4.48e-11 model=1 vminpu=0 vmaxpu=2
new Load.agg_148 phases=1 bus1=480.1 conn=wye kv=0.2401777119828843 kw=6.603200000000001e-09 kvar=-2.654400000000001e-09 model=1 vminpu=0 vmaxpu=2
new Load.agg_149 phases=1 bus1=480.2 conn=wye kv=0.2401777119828843 kw=8.127999999999998e-09 kvar=1.0048e-09 model=1 vminpu=0 vmaxpu=2
new Load.agg_150 phases=1 bus1=480.3 conn=wye kv=0.2401777119828843 kw=6.2952e-09 kvar=3.792e-10 model=1 vminpu=0 vmaxpu=2
new Load.agg_151 phases=1 bus1=487.1 conn=wye kv=0.2401777119828843 kw=3.408000000000003e-10 kvar=2.2648e-09 model=1 vminpu=0 vmaxpu=2
new Load.agg_152 phases=1 bus1=487.2 conn=wye kv=0.2401777119828843 kw=0.0368100916944 kvar=0.0121011159488 model=1 vminpu=0 vmaxpu=2
new Load.agg_153 phases=1 bus1=487.3 conn=wye kv=0.2401777119828843 kw=-1.148e-09 kvar=1.968000000000003e-10 model=1 vminpu=0 vmaxpu=2
new Load.agg_154 phases=1 bus1=508.1 conn=wye kv=0.2401777119828843 kw=1.512e-10 kvar=2.160000000000001e-10 model=1 vminpu=0 vmaxpu=2
new Load.agg_155 phases=1 bus1=508.2 conn=wye kv=0.2401777119828843 kw=-1.8e-10 kvar=4.480000000000001e-11 model=1 vminpu=0 vmaxpu=2
new Load.agg_156 phases=1 bus1=508.3 conn=wye kv=0.2401777119828843 kw=-2.399999999999999e-11 kvar=-8.079999999999999e-11 model=1 vminpu=0 vmaxpu=2
new Load.agg_157 phases=1 bus1=544.1 conn=wye kv=0.2401777119828843 kw=1.0855672090936 kvar=0.35680333192 model=1 vminpu=0 vmaxpu=2
new Load.agg_158 phases=1 bus1=544.2 conn=wye kv=0.2401777119828843 kw=-7.599999999999997e-11 kvar=-4.8e-11 model=1 vminpu=0 vmaxpu=2
new Load.agg_159 phases=1 bus1=544.3 conn=wye kv=0.2401777119828843 kw=-4.496000000000001e-10 kvar=8.240000000000009e-11 model=1 vminpu=0 vmaxpu=2
new Load.agg_160 phases=1 bus1=546.1 conn=wye kv=0.2401777119828843 kw=0.1903715757488 kvar=0.062568124128 model=1 vminpu=0 vmaxpu=2
new Load.agg_161 phases=1 bus1=546.2 conn=wye kv=0.2401777119828843 kw=-2.048e-10 kvar=7.999999999999979e-12 model=1 vminpu=0 vmaxpu=2
new Load.agg_162 phases=1 bus1=546.3 conn=wye kv=0.2401777119828843 kw=3.200000000000082e-12 kvar=-3.919999999999995e-11 model=1 vminpu=0 vmaxpu=2
new Load.agg_163 phases=1 bus1=559.1 conn=wye kv=0.2401777119828843 kw=-9.335999999999998e-10 kvar=1.7368e-09 model=1 vminpu=0 vmaxpu=2
new Load.agg_164 phases=1 bus1=559.2 conn=wye kv=0.2401777119828843 kw=0.04658185842 kvar=0.0153130635288 model=1 vminpu=0 vmaxpu=2
new Load.agg_165 phases=1 bus1=559.3 conn=wye kv=0.2401777119828843 kw=0.2719832413576 kvar=0.08939822784240001 model=1 vminpu=0 vmaxpu=2
new Load.agg_166 phases=1 bus1=578.1 conn=wye kv=0.2401777119828843 kw=-1.952000000000001e-10 kvar=-1.272e-10 model=1 vminpu=0 vmaxpu=2
new Load.agg_167 phases=1 bus1=578.2 conn=wye kv=0.2401777119828843 kw=5.11999999999999e-11 kvar=-2.623999999999999e-10 model=1 vminpu=0 vmaxpu=2
new Load.agg_168 phases=1 bus1=578.3 conn=wye kv=0.2401777119828843 kw=0.06090074213840001 kvar=0.0200190721504 model=1 vminpu=0 vmaxpu=2
new Load.agg_169 phases=1 bus1=615.1 conn=wye kv=0.2401777119828843 kw=-1.0296e-09 kvar=5.312e-10 model=1 vminpu=0 vmaxpu=2
new Load.agg_170 phases=1 bus1=615.2 conn=wye kv=0.2401777119828843 kw=-3.712e-10 kvar=2.000000000000008e-11 model=1 vminpu=0 vmaxpu=2
new Load.agg_171 phases=1 bus1=615.3 conn=wye kv=0.2401777119828843 kw=4.656000000000002e-10 kvar=-1.736000000000001e-10 model=1 vminpu=0 vmaxpu=2
new Load.agg_172 phases=1 bus1=621.1 conn=wye kv=0.2401777119828843 kw=3.552e-10 kvar=-6.480000000000001e-11 model=1 vminpu=0 vmaxpu=2
new Load.agg_173 phases=1 bus1=621.2 conn=wye kv=0.2401777119828843 kw=0.10832778788 kvar=0.035610285536 model=1 vminpu=0 vmaxpu=2
new Load.agg_174 phases=1 bus1=621.3 conn=wye kv=0.2401777119828843 kw=-1.032000000000001e-10 kvar=-7.839999999999996e-11 model=1 vminpu=0 vmaxpu=2
new Load.agg_175 phases=1 bus1=627.1 conn=wye kv=0.2401777119828843 kw=-8.864000000000003e-10 kvar=-2.2184e-09 model=1 vminpu=0 vmaxpu=2
new Load.agg_176 phases=1 bus1=627.2 conn=wye kv=0.2401777119828843 kw=1.4936e-09 kvar=1.3816e-09 model=1 vminpu=0 vmaxpu=2
new Load.agg_177 phases=1 bus1=627.3 conn=wye kv=0.2401777119828843 kw=-8.583999999999996e-10 kvar=6.679999999999998e-10 model=1 vminpu=0 vmaxpu=2
new Load.agg_178 phases=1 bus1=658.1 conn=wye kv=0.2401777119828843 kw=6.168e-10 kvar=-1.056e-10 model=1 vminpu=0 vmaxpu=2
new Load.agg_179 phases=1 bus1=658.2 conn=wye kv=0.2401777119828843 kw=9.471999999999998e-10 kvar=-2.344e-10 model=1 vminpu=0 vmaxpu=2
new Load.agg_180 phases=1 bus1=658.3 conn=wye kv=0.2401777119828843 kw=7.144e-10 kvar=-1.128e-10 model=1 vminpu=0 vmaxpu=2
new Load.agg_181 phases=1 bus1=659.1 conn=wye kv=0.2401777119828843 kw=-8.320000000000001e-11 kvar=-8.8e-12 model=1 vminpu=0 vmaxpu=2
new Load.agg_182 phases=1 bus1=659.2 conn=wye kv=0.2401777119828843 kw=0.246749312004 kvar=0.08110446282879999 model=1 vminpu=0 vmaxpu=2
new Load.agg_183 phases=1 bus1=659.3 conn=wye kv=0.2401777119828843 kw=-4.799999999999999e-11 kvar=7.2e-12 model=1 vminpu=0 vmaxpu=2
new Load.agg_184 phases=1 bus1=666.1 conn=wye kv=0.2401777119828843 kw=2.048e-10 kvar=-2.768e-10 model=1 vminpu=0 vmaxpu=2
new Load.agg_185 phases=1 bus1=666.2 conn=wye kv=0.2401777119828843 kw=1.912e-10 kvar=3.344000000000001e-10 model=1 vminpu=0 vmaxpu=2
new Load.agg_186 phases=1 bus1=666.3 conn=wye kv=0.2401777119828843 kw=-1.912e-10 kvar=2.959999999999999e-11 model=1 vminpu=0 vmaxpu=2
new Load.agg_187 phases=1 bus1=672.1 conn=wye kv=0.2401777119828843 kw=-1.152e-10 kvar=5.199999999999998e-11 model=1 vminpu=0 vmaxpu=2
new Load.agg_188 phases=1 bus1=672.2 conn=wye kv=0.2401777119828843 kw=-1.592e-10 kvar=-1.48e-10 model=1 vminpu=0 vmaxpu=2
new Load.agg_189 phases=1 bus1=672.3 conn=wye kv=0.2401777119828843 kw=-9.600000000000004e-11 kvar=-9.599999999999985e-12 model=1 vminpu=0 vmaxpu=2
new Load.agg_190 phases=1 bus1=686.1 conn=wye kv=0.2401777119828843 kw=-1.28e-11 kvar=5.599999999999997e-11 model=1 vminpu=0 vmaxpu=2
new Load.agg_191 phases=1 bus1=686.2 conn=wye kv=0.2401777119828843 kw=0.0465177749432 kvar=0.0152920190352 model=1 vminpu=0 vmaxpu=2
new Load.agg_192 phases=1 bus1=686.3 conn=wye kv=0.2401777119828843 kw=0.05219713138799999 kvar=0.0171584456528 model=1 vminpu=0 vmaxpu=2
new Load.agg_193 phases=1 bus1=703.1 conn=wye kv=0.2401777119828843 kw=6.184e-10 kvar=1.919999999999999e-10 model=1 vminpu=0 vmaxpu=2
new Load.agg_194 phases=1 bus1=703.2 conn=wye kv=0.2401777119828843 kw=-1.06e-09 kvar=-4.735999999999999e-10 model=1 vminpu=0 vmaxpu=2
new Load.agg_195 phases=1 bus1=703.3 conn=wye kv=0.2401777119828843 kw=1.24e-09 kvar=4.72000000000002e-11 model=1 vminpu=0 vmaxpu=2
new Load.agg_196 phases=1 bus1=706.1 conn=wye kv=0.2401777119828843 kw=-7.016e-10 kvar=-1.743999999999999e-10 model=1 vminpu=0 vmaxpu=2
new Load.agg_197 phases=1 bus1=706.2 conn=wye kv=0.2401777119828843 kw=-4.552e-10 kvar=-1.528000000000001e-10 model=1 vminpu=0 vmaxpu=2
new Load.agg_198 phases=1 bus1=706.3 conn=wye kv=0.2401777119828843 kw=0.0587211434896 kvar=0.0193027735648 model=1 vminpu=0 vmaxpu=2
new Load.agg_199 phases=1 bus1=707.1 conn=wye kv=0.2401777119828843 kw=-2.624e-10 kvar=-7.840000000000001e-11 model=1 vminpu=0 vmaxpu=2
new Load.agg_200 phases=1 bus1=707.2 conn=wye kv=0.2401777119828843 kw=2.544e-10 kvar=-1.272e-10 model=1 vminpu=0 vmaxpu=2
new Load.agg_201 phases=1 bus1=707.3 conn=wye kv=0.2401777119828843 kw=-2.367999999999999e-10 kvar=3.68e-11 model=1 vminpu=0 vmaxpu=2
new Load.agg_202 phases=1 bus1=718.1 conn=wye kv=0.2401777119828843 kw=5.36e-11 kvar=1.12e-11 model=1 vminpu=0 vmaxpu=2
new Load.agg_203 phases=1 bus1=718.2 conn=wye kv=0.2401777119828843 kw=4.48e-11 kvar=-7.199999999999996e-12 model=1 vminpu=0 vmaxpu=2
new Load.agg_204 phases=1 bus1=718.3 conn=wye kv=0.2401777119828843 kw=-3.999999999999997e-12 kvar=3.199999999999999e-11 model=1 vminpu=0 vmaxpu=2
new Load.agg_205 phases=1 bus1=721.1 conn=wye kv=0.2401777119828843 kw=2.888e-10 kvar=1.6e-11 model=1 vminpu=0 vmaxpu=2
new Load.agg_206 phases=1 bus1=721.2 conn=wye kv=0.2401777119828843 kw=0.0313940355624 kvar=0.010320976512 model=1 vminpu=0 vmaxpu=2
new Load.agg_207 phases=1 bus1=721.3 conn=wye kv=0.2401777119828843 kw=5.359999999999998e-11 kvar=8.720000000000006e-11 model=1 vminpu=0 vmaxpu=2
new Load.agg_208 phases=1 bus1=732.1 conn=wye kv=0.2401777119828843 kw=2.752e-10 kvar=2.832000000000001e-10 model=1 vminpu=0 vmaxpu=2
new Load.agg_209 phases=1 bus1=732.2 conn=wye kv=0.2401777119828843 kw=0.9217126891376001 kvar=0.3029554509464 model=1 vminpu=0 vmaxpu=2
new Load.agg_210 phases=1 bus1=732.3 conn=wye kv=0.2401777119828843 kw=-1.168000000000001e-10 kvar=-1.239999999999999e-10 model=1 vminpu=0 vmaxpu=2
new Load.agg_211 phases=1 bus1=736.1 conn=wye kv=0.2401777119828843 kw=0.05310036838000001 kvar=0.017448516124 model=1 vminpu=0 vmaxpu=2
new Load.agg_212 phases=1 bus1=736.2 conn=wye kv=0.2401777119828843 kw=1.208e-10 kvar=8.479999999999999e-11 model=1 vminpu=0 vmaxpu=2
new Load.agg_213 phases=1 bus1=736.3 conn=wye kv=0.2401777119828843 kw=-3.12e-10 kvar=-6.959999999999998e-11 model=1 vminpu=0 vmaxpu=2
new Load.agg_214 phases=1 bus1=745.1 conn=wye kv=0.2401777119828843 kw=-1.6e-11 kvar=1.44e-11 model=1 vminpu=0 vmaxpu=2
new Load.agg_215 phases=1 bus1=745.2 conn=wye kv=0.2401777119828843 kw=-4.8e-11 kvar=-3.520000000000001e-11 model=1 vminpu=0 vmaxpu=2
new Load.agg_216 phases=1 bus1=745.3 conn=wye kv=0.2401777119828843 kw=-5.36e-11 kvar=1.84e-11 model=1 vminpu=0 vmaxpu=2
new Load.agg_217 phases=1 bus1=749.1 conn=wye kv=0.2401777119828843 kw=9.456000000000001e-10 kvar=3.999999999999988e-12 model=1 vminpu=0 vmaxpu=2
new Load.agg_218 phases=1 bus1=749.2 conn=wye kv=0.2401777119828843 kw=-1.5784e-09 kvar=1.336000000000001e-10 model=1 vminpu=0 vmaxpu=2
new Load.agg_219 phases=1 bus1=749.3 conn=wye kv=0.2401777119828843 kw=7.392000000000001e-10 kvar=1.367999999999999e-10 model=1 vminpu=0 vmaxpu=2
new Load.agg_220 phases=1 bus1=754.1 conn=wye kv=0.2401777119828843 kw=4.408000000000001e-10 kvar=1.280000000000006e-11 model=1 vminpu=0 vmaxpu=2
new Load.agg_221 phases=1 bus1=754.2 conn=wye kv=0.2401777119828843 kw=-2.928e-10 kvar=1.039999999999999e-11 model=1 vminpu=0 vmaxpu=2
new Load.agg_222 phases=1 bus1=754.3 conn=wye kv=0.2401777119828843 kw=0.4967016481952001 kvar=0.1632616631096 model=1 vminpu=0 vmaxpu=2
new Load.agg_223 phases=1 bus1=783.1 conn=wye kv=0.2401777119828843 kw=2.767999999999999e-10 kvar=-1.92e-11 model=1 vminpu=0 vmaxpu=2
new Load.agg_224 phases=1 bus1=783.2 conn=wye kv=0.2401777119828843 kw=7.28000000000001e-11 kvar=2.359999999999999e-10 model=1 vminpu=0 vmaxpu=2
new Load.agg_225 phases=1 bus1=783.3 conn=wye kv=0.2401777119828843 kw=-1.824e-10 kvar=-3.288e-10 model=1 vminpu=0 vmaxpu=2
new Load.agg_226 phases=1 bus1=794.1 conn=wye kv=0.2401777119828843 kw=1.648e-10 kvar=7.839999999999997e-11 model=1 vminpu=0 vmaxpu=2
new Load.agg_227 phases=1 bus1=794.2 conn=wye kv=0.2401777119828843 kw=1.304e-10 kvar=2.799999999999995e-11 model=1 vminpu=0 vmaxpu=2
new Load.agg_228 phases=1 bus1=794.3 conn=wye kv=0.2401777119828843 kw=4.471999999999999e-10 kvar=2.159999999999998e-11 model=1 vminpu=0 vmaxpu=2
new Load.agg_229 phases=1 bus1=824.1 conn=wye kv=0.2401777119828843 kw=0.1083679164904 kvar=0.0356093584968 model=1 vminpu=0 vmaxpu=2
new Load.agg_230 phases=1 bus1=824.2 conn=wye kv=0.2401777119828843 kw=2.152e-10 kvar=-3.759999999999994e-11 model=1 vminpu=0 vmaxpu=2
new Load.agg_231 phases=1 bus1=824.3 conn=wye kv=0.2401777119828843 kw=1.328e-10 kvar=2.319999999999999e-11 model=1 vminpu=0 vmaxpu=2
new Load.agg_232 phases=1 bus1=826.1 conn=wye kv=0.2401777119828843 kw=7.840000000000001e-11 kvar=5.36e-11 model=1 vminpu=0 vmaxpu=2
new Load.agg_233 phases=1 bus1=826.2 conn=wye kv=0.2401777119828843 kw=0.334923995192 kvar=0.1100861115008 model=1 vminpu=0 vmaxpu=2
new Load.agg_234 phases=1 bus1=826.3 conn=wye kv=0.2401777119828843 kw=2.92e-10 kvar=-1.600000000000003e-12 model=1 vminpu=0 vmaxpu=2
new Load.agg_235 phases=1 bus1=843.1 conn=wye kv=0.2401777119828843 kw=0.5888937854776 kvar=0.1935573065856 model=1 vminpu=0 vmaxpu=2
new Load.agg_236 phases=1 bus1=843.2 conn=wye kv=0.2401777119828843 kw=-4.799999999999996e-11 kvar=1.496e-10 model=1 vminpu=0 vmaxpu=2
new Load.agg_237 phases=1 bus1=843.3 conn=wye kv=0.2401777119828843 kw=-4.223999999999999e-10 kvar=-6.880000000000004e-11 model=1 vminpu=0 vmaxpu=2
new Load.agg_238 phases=1 bus1=859.1 conn=wye kv=0.2401777119828843 kw=0.1094395603752 kvar=0.03596124463439999 model=1 vminpu=0 vmaxpu=2
new Load.agg_239 phases=1 bus1=859.2 conn=wye kv=0.2401777119828843 kw=-6.703999999999999e-10 kvar=-5.136e-10 model=1 vminpu=0 vmaxpu=2
new Load.agg_240 phases=1 bus1=859.3 conn=wye kv=0.2401777119828843 kw=-1.151999999999999e-10 kvar=1.704e-10 model=1 vminpu=0 vmaxpu=2
new Load.agg_241 phases=1 bus1=885.1 conn=wye kv=0.2401777119828843 kw=-2.479999999999999e-11 kvar=7.199999999999998e-12 model=1 vminpu=0 vmaxpu=2
new Load.agg_242 phases=1 bus1=885.2 conn=wye kv=0.2401777119828843 kw=0.050778866344 kvar=0.016692764688 model=1 vminpu=0 vmaxpu=2
new Load.agg_244 phases=1 bus1=901.1 conn=wye kv=0.2401777119828843 kw=0.0595490421968 kvar=0.019567711412 model=1 vminpu=0 vmaxpu=2
new Load.agg_245 phases=1 bus1=901.2 conn=wye kv=0.2401777119828843 kw=7.52e-11 kvar=-0 model=1 vminpu=0 vmaxpu=2
new Load.agg_246 phases=1 bus1=901.3 conn=wye kv=0.2401777119828843 kw=3.36e-10 kvar=5.599999999999996e-12 model=1 vminpu=0 vmaxpu=2
